[TITLE]
;;Project Title/Notes
Uebung2

[OPTIONS]
;;Option             Value
FLOW_UNITS           LPS
INFILTRATION         GREEN_AMPT
FLOW_ROUTING         DYNWAVE
LINK_OFFSETS         DEPTH
MIN_SLOPE            0
ALLOW_PONDING        NO
SKIP_STEADY_STATE    NO

START_DATE           05/07/2005
START_TIME           00:00:00
REPORT_START_DATE    05/07/2005
REPORT_START_TIME    00:00:00
END_DATE             05/08/2005
END_TIME             23:55:00
SWEEP_START          01/01
SWEEP_END            12/31
DRY_DAYS             0
REPORT_STEP          00:05:00
WET_STEP             00:05:00
DRY_STEP             01:00:00
ROUTING_STEP         0:00:05 

INERTIAL_DAMPING     PARTIAL
NORMAL_FLOW_LIMITED  BOTH
FORCE_MAIN_EQUATION  H-W
VARIABLE_STEP        0.75
LENGTHENING_STEP     0
MIN_SURFAREA         1.14
MAX_TRIALS           8
HEAD_TOLERANCE       0.0015
SYS_FLOW_TOL         5
LAT_FLOW_TOL         5
MINIMUM_STEP         0.5
THREADS              1

[EVAPORATION]
;;Data Source    Parameters
;;-------------- ----------------
CONSTANT         0.0
DRY_ONLY         NO

[RAINGAGES]
;;Name           Format    Interval SCF      Source    
;;-------------- --------- ------ ------ ----------
RG1              VOLUME    0:05     1.0      FILE       "ED_N.dat"       N_ED       MM   

[SUBCATCHMENTS]
;;Name           Rain Gage        Outlet           Area     %Imperv  Width    %Slope   CurbLen  SnowPack        
;;-------------- ---------------- ---------------- -------- -------- -------- -------- -------- ----------------
SC1              RG1              123              0.1      100      100      10       0                        
SC2              RG1              201              0.1      100      100      10       0                        
9                RG1              171              0.1      100      100      10       0                        
13               RG1              268              0.779    100      600      10       0                        

[SUBAREAS]
;;Subcatchment   N-Imperv   N-Perv     S-Imperv   S-Perv     PctZero    RouteTo    PctRouted 
;;-------------- ---------- ---------- ---------- ---------- ---------- ---------- ----------
SC1              0.015      0.1        0.5        0.05       0          OUTLET    
SC2              0.015      0.1        0.5        0.05       0          OUTLET    
9                0.015      0.1        0.5        0.5        0          OUTLET    
13               0.015      0.1        0.5        0.5        0          OUTLET    

[INFILTRATION]
;;Subcatchment   Suction    Ksat       IMD       
;;-------------- ---------- ---------- ----------
SC1              3.0        0.5        4         
SC2              3.0        0.5        4         
9                3.0        0.5        4         
13               3.0        0.5        4         

[JUNCTIONS]
;;Name           Elevation  MaxDepth   InitDepth  SurDepth   Aponded   
;;-------------- ---------- ---------- ---------- ---------- ----------
1                301.14     2          0          0          0         
2                298.6      3.75       0          0          0         
3                299.93     2.48       0          0          0         
4                292.65     1.4        0          0          0         
5                297.12     1.31       0          0          0         
6                286.52     1.12       0          0          0         
8                291.5      1.45       0          0          0         
10               282.9      1.34       0          0          0         
11               291.35     1.65       0          0          0         
12               280.52     1.21       0          0          0         
14               282.15     1.42       0          0          0         
15               280.24     3.41       0          0          0         
16               283.49     2.71       0          0          0         
17               286.5      1.5        0          0          0         
18               266.14     2.29       0          0          0         
19               264.56     1.91       0          0          0         
20               263.58     1.68       0          0          0         
21               264.06     1.23       0          0          0         
22               267.54     2.49       0          0          0         
23               267.88     1.97       0          0          0         
24               273.36     1.19       0          0          0         
25               280.22     1.46       0          0          0         
26               273        1.8        0          0          0         
27               278.8      1.89       0          0          0         
29               275.85     1.25       0          0          0         
30               264.8      1.86       0          0          0         
31               261.36     1.84       0          0          0         
32               271.09     2.07       0          0          0         
33               266.1      1.48       0          0          0         
34               267.69     1.92       0          0          0         
35               261.43     2.05       0          0          0         
36               258.34     1.86       0          0          0         
37               263.3      1.8        0          0          0         
38               254.03     1.9        0          0          0         
39               260.61     0.87       0          0          0         
40               279.07     3.02       0          0          0         
41               247.99     1.44       0          0          0         
42               248.2      1.44       0          0          0         
43               258.9      1.99       0          0          0         
44               248.78     2.09       0          0          0         
45               243.82     2.1        0          0          0         
46               240.77     1.28       0          0          0         
47               242.61     1.62       0          0          0         
48               243.65     1.65       0          0          0         
49               238.58     1.79       0          0          0         
50               239.39     1.35       0          0          0         
51               239.87     0.73       0          0          0         
53               298.94     2.85       0          0          0         
54               298.29     3.53       0          0          0         
55               298.79     3.14       0          0          0         
56               298.34     3.48       0          0          0         
57               297.86     3.37       0          0          0         
58               297.95     3.6        0          0          0         
59               297.08     3.43       0          0          0         
60               296.98     3.48       0          0          0         
61               297.84     3.12       0          0          0         
62               297.63     2.93       0          0          0         
63               297.45     3.32       0          0          0         
64               297.38     3.37       0          0          0         
65               296.69     3.69       0          0          0         
66               296.63     2.34       0          0          0         
67               296.37     3.49       0          0          0         
68               295.86     1.79       0          0          0         
69               295.51     1.65       0          0          0         
70               295.01     1.73       0          0          0         
71               294.5      1.83       0          0          0         
72               293.86     2          0          0          0         
73               293.43     1.38       0          0          0         
74               292.96     1.21       0          0          0         
75               292.51     1.61       0          0          0         
76               292.13     1.41       0          0          0         
77               291.81     1.45       0          0          0         
78               291.71     1.73       0          0          0         
79               291.66     1.71       0          0          0         
80               296.41     2.6        0          0          0         
81               296.5      2.64       0          0          0         
82               291.39     1.36       0          0          0         
83               291.42     1.46       0          0          0         
84               291.32     1.64       0          0          0         
85               291.29     1.64       0          0          0         
86               295.82     2.38       0          0          0         
87               291.24     1.65       0          0          0         
88               296.94     1.62       0          0          0         
89               295.37     1.78       0          0          0         
90               291.09     1.87       0          0          0         
91               293.42     2.11       0          0          0         
92               291        1.87       0          0          0         
93               290.66     1.92       0          0          0         
94               290.53     1.99       0          0          0         
95               290.09     1.37       0          0          0         
97               286.05     1.03       0          0          0         
98               291.4      2.36       0          0          0         
100              289.3      2.36       0          0          0         
102              284.39     1.27       0          0          0         
104              288.3      1.97       0          0          0         
105              288.14     2.24       0          0          0         
106              283.25     1.29       0          0          0         
107              281.66     1.28       0          0          0         
108              288.04     2.31       0          0          0         
109              287.95     2.2        0          0          0         
110              283        1.29       0          0          0         
111              281.32     1.62       0          0          0         
112              281.05     2.37       0          0          0         
113              287.41     1.64       0          0          0         
114              287.41     1.64       0          0          0         
115              280.54     1.56       0          0          0         
116              286.6      1.36       0          0          0         
117              280.77     2.11       0          0          0         
118              280.62     2.7        0          0          0         
119              286.5      1.36       0          0          0         
120              280.38     2.84       0          0          0         
121              280.22     2.46       0          0          0         
122              280.19     1.43       0          0          0         
123              285.05     1.09       0          0          0         
124              280.14     2.13       0          0          0         
125              280        2.2        0          0          0         
126              279.59     1.66       0          0          0         
127              279.75     2.44       0          0          0         
128              279.69     2.46       0          0          0         
129              279.23     2.09       0          0          0         
130              283.74     1.41       0          0          0         
131              279.1      2.06       0          0          0         
132              279.05     1.98       0          0          0         
133              282.76     1.65       0          0          0         
134              278.6      1.25       0          0          0         
135              279.64     1.79       0          0          0         
136              280.48     1.28       0          0          0         
137              282.25     1.74       0          0          0         
138              278.17     1.87       0          0          0         
139              281.08     1.22       0          0          0         
140              278        2.26       0          0          0         
141              281.4      1.38       0          0          0         
142              280.77     2.62       0          0          0         
143              280.8      2.62       0          0          0         
144              280.84     2.29       0          0          0         
145              280.55     2.41       0          0          0         
146              277.35     2.04       0          0          0         
147              281.07     2.1        0          0          0         
148              281.34     1.92       0          0          0         
149              280.36     2.73       0          0          0         
150              281.74     1.69       0          0          0         
151              280.24     3.72       0          0          0         
152              282.47     1.38       0          0          0         
153              276.39     1.78       0          0          0         
154              280.07     3.49       0          0          0         
155              283        1.63       0          0          0         
156              277.57     2.54       0          0          0         
157              277.13     2.25       0          0          0         
158              274.96     1.93       0          0          0         
159              284.04     1.82       0          0          0         
160              276.7      1.88       0          0          0         
161              285.69     1.54       0          0          0         
162              277        4.38       0          0          0         
163              277.24     4.38       0          0          0         
164              282.55     2.41       0          0          0         
165              275.36     2.5        0          0          0         
166              274.22     2.14       0          0          0         
167              282.91     2.85       0          0          0         
168              275.07     2.01       0          0          0         
169              273.82     1.8        0          0          0         
170              273.46     1.8        0          0          0         
171              272.8      1.92       0          0          0         
172              270.77     1.78       0          0          0         
173              270.19     1.53       0          0          0         
174              269.28     2.04       0          0          0         
175              268.71     1.79       0          0          0         
176              267.72     2.02       0          0          0         
177              266.53     1.9        0          0          0         
178              265.46     2.15       0          0          0         
179              264.79     2          0          0          0         
180              263.68     1.98       0          0          0         
181              262.55     2.59       0          0          0         
182              264.01     1.63       0          0          0         
183              262.36     2.52       0          0          0         
184              262.81     2.53       0          0          0         
185              262.06     2.29       0          0          0         
186              264.47     1.66       0          0          0         
187              261.95     1.95       0          0          0         
188              264.68     2.45       0          0          0         
189              263        2.4        0          0          0         
190              261.51     2.45       0          0          0         
191              262.24     2.61       0          0          0         
192              261.4      2.45       0          0          0         
193              264.72     2.45       0          0          0         
194              262.94     1.52       0          0          0         
195              261.18     3.36       0          0          0         
196              260.74     4.34       0          0          0         
197              263.51     1.22       0          0          0         
198              266.57     2.5        0          0          0         
199              266.88     2.66       0          0          0         
200              260.65     4.17       0          0          0         
201              260.58     3.41       0          0          0         
202              260.46     3.01       0          0          0         
203              260.17     2.22       0          0          0         
204              279.8      2.02       0          0          0         
205              275.96     2.01       0          0          0         
206              259.75     1.86       0          0          0         
207              272.9      2.25       0          0          0         
208              267        1.45       0          0          0         
209              259.58     1.9        0          0          0         
210              266.9      1.45       0          0          0         
211              266.75     1.45       0          0          0         
212              259.45     1.88       0          0          0         
213              272.82     2.25       0          0          0         
214              266.6      1.45       0          0          0         
215              259.18     2.03       0          0          0         
216              259.99     2.19       0          0          0         
217              258.99     2.19       0          0          0         
218              258.8      2.44       0          0          0         
219              258.61     2.69       0          0          0         
220              278.5      1.89       0          0          0         
221              277.5      1.89       0          0          0         
222              268        1.64       0          0          0         
223              258.5      2.78       0          0          0         
224              267.8      1.64       0          0          0         
225              267.52     1.64       0          0          0         
226              258.19     2.24       0          0          0         
227              268.1      2.11       0          0          0         
228              267.52     1.64       0          0          0         
229              261.36     1.84       0          0          0         
230              261.2      1.84       0          0          0         
231              258.1      1.32       0          0          0         
232              257.56     1.83       0          0          0         
233              270.6      1.43       0          0          0         
234              264        2.0        0          0          0         
235              262.88     2.32       0          0          0         
236              257.35     1.44       0          0          0         
237              269.16     2.03       0          0          0         
238              256.95     1.45       0          0          0         
239              259.82     1.85       0          0          0         
240              266.07     1.97       0          0          0         
241              267.68     2.07       0          0          0         
242              264.26     2.05       0          0          0         
243              256.78     1.59       0          0          0         
244              259.66     2.75       0          0          0         
245              259.84     1.68       0          0          0         
246              256.47     1.87       0          0          0         
247              256        2          0          0          0         
248              257.46     2.5        0          0          0         
249              255.9      2          0          0          0         
250              256.05     1.92       0          0          0         
251              254.47     2.06       0          0          0         
252              254.44     1.69       0          0          0         
253              258.12     2.02       0          0          0         
254              253.14     2          0          0          0         
255              253.55     1.93       0          0          0         
256              252.72     2.14       0          0          0         
257              253.88     1.47       0          0          0         
258              254.66     1.43       0          0          0         
259              255        1.43       0          0          0         
260              253.14     1.33       0          0          0         
261              261.11     1.12       0          0          0         
262              251.73     1.77       0          0          0         
263              252.64     1.69       0          0          0         
264              250.21     3.1        0          0          0         
265              250.46     2.94       0          0          0         
266              249.91     2.79       0          0          0         
267              249.68     2.1        0          0          0         
268              249.36     1.91       0          0          0         
269              248.88     2.07       0          0          0         
270              260.29     2.4        0          0          0         
271              248.54     2.17       0          0          0         
272              278.74     2.47       0          0          0         
273              252.43     1.39       0          0          0         
274              277.65     2.09       0          0          0         
275              247.86     2.14       0          0          0         
276              247.73     2.12       0          0          0         
277              252.3      1.39       0          0          0         
278              251.25     1.83       0          0          0         
279              247.57     2.07       0          0          0         
280              275.28     1.92       0          0          0         
281              247.45     2.38       0          0          0         
282              251        1.83       0          0          0         
283              247.35     1.92       0          0          0         
284              273.65     2          0          0          0         
285              247.32     1.92       0          0          0         
286              272.15     2.45       0          0          0         
287              247.3      1.68       0          0          0         
288              272.43     1.87       0          0          0         
289              271.12     0.99       0          0          0         
290              247.14     2.26       0          0          0         
291              268.89     1.64       0          0          0         
292              266.44     1.12       0          0          0         
293              246.32     2.84       0          0          0         
294              261.76     1.6        0          0          0         
295              249.25     0.9        0          0          0         
296              252.5      1.08       0          0          0         
299              246.02     2.13       0          0          0         
300              253.03     1.08       0          0          0         
301              245.86     1.58       0          0          0         
302              248.58     1.39       0          0          0         
303              245.29     1.62       0          0          0         
304              249.73     1.04       0          0          0         
305              252.69     3.91       0          0          0         
306              244.34     1.69       0          0          0         
307              252.8      1.39       0          0          0         
308              243.75     1.64       0          0          0         
309              258.81     1.99       0          0          0         
310              244        1.64       0          0          0         
311              242.62     2.16       0          0          0         
312              242.2      1.88       0          0          0         
313              242.08     1.75       0          0          0         
314              241.95     1.61       0          0          0         
315              241.5      1.51       0          0          0         
316              241.21     1.19       0          0          0         
317              240.48     1.01       0          0          0         
318              241.04     1.23       0          0          0         
319              240.12     1.43       0          0          0         
320              239.48     1.84       0          0          0         
321              239.36     1.85       0          0          0         
322              239.31     1.81       0          0          0         
323              242.7      1.32       0          0          0         
324              242.55     1.32       0          0          0         
325              239.67     1.27       0          0          0         
326              239.15     1.72       0          0          0         
327              239.01     1.68       0          0          0         
328              238.71     1.88       0          0          0         
329              238.16     1.49       0          0          0         
330              238.13     2.57       0          0          0         
331              237.65     2.6        0          0          0         
332              239.7      1.35       0          0          0         
333              237.21     2.92       0          0          0         
334              237.19     2.93       0          0          0         
335              239.6      1.35       0          0          0         
336              237.03     1.45       0          0          0         
337              236.77     1.49       0          0          0         
338              236.5      2.1        0          0          0         
339              236.33     1.44       0          0          0         
340              236.06     1.36       0          0          0         
341              235.8      2.31       0          0          0         
342              235.57     1.95       0          0          0         
343              234.27     1.16       0          0          0         

[OUTFALLS]
;;Name           Elevation  Type       Stage Data       Gated    Route To        
;;-------------- ---------- ---------- ---------------- -------- ----------------
Out1             233.93     NORMAL                      NO                       

[CONDUITS]
;;Name           From Node        To Node          Length     Roughness  InOffset   OutOffset  InitFlow   MaxFlow   
;;-------------- ---------------- ---------------- ---------- ---------- ---------- ---------- ---------- ----------
103              343              Out1             44.48951562 0.0113     0          0          0          0         
97B3             71               72               30.7487268 0.0113     0          0          0          0         
97B2             70               71               27.36422665 0.0113     0          0          0          0         
97B37            67               68               53.64380486 0.0113     0          0          0          0         
97B102           66               69               83.91000536 0.015      0          0          0          0         
97B103           62               66               54.92134194 0.015      0          0          0          0         
97B104           56               62               44.11338119 0.015      0          0          0          0         
97B105           53               56               44.40555934 0.015      0          0          0          0         
97B1             69               70               25.12114647 0.0113     0          0          0          0         
97B38            68               69               12.17641162 0.0113     0          0          0          0         
97B6             74               75               19.29876939 0.0113     0          0          0          0         
140B63           307              305              17.57314428 0.0113     0          0          0          0         
140B62           309              307              30.12478714 0.0113     0          0          0          0         
140A16           35               245              6.91069461 0.0113     0          0          0          0         
140B42           43               309              18.14952341 0.0113     0          0          0          0         
140A32           282              283              13.72659462 0.0113     0          0          0          0         
140A36           294              300              36.91      0.0113     0          0          0          0         
140A39           300              296              18.74543411 0.0113     0          0          0          0         
140A41           295              42               31.25856203 0.0113     0          0          0          0         
140B10           45               312              13.26141018 0.0113     0          0          0          0         
140B9            310              308              10.4784016 0.0113     0          0          0          0         
140B8            44               310              13.53834924 0.0113     0          0          0          0         